Circuit: * C:\git\LTSpice\Regulators\arduinoregulator.asc

Warning: Pscbe2 = 0 is not positive.
Warning: Pd = 0 is less than W.
Warning: Ps = 0 is less than W.
Direct Newton iteration for .op point succeeded.

Date: Tue Apr 11 15:22:25 2023
Total elapsed time: 18.042 seconds.

tnom = 27
temp = 27
method = modified trap
totiter = 4879919
traniter = 4879911
tranpoints = 2140201
accept = 1497809
rejected = 642392
matrix size = 18
fillins = 7
solver = Normal
Matrix Compiler1: 1.35 KB object code size  0.4/0.2/[0.2]
Matrix Compiler2: off  [0.2]/0.2/0.3

