Circuit: * C:\git\LTSpice\NFC antenna simulations\ant.asc

.step r=1000
.step r=2200
.step r=4700
.step r=5600
.step r=6800
.step r=8200
.step r=10000
.step r=1e+008


Measurement: tmp
  step	MIN(mag(i(v1)))	FROM	TO
     1	(-73.4095dB,0°)	1e+006	1e+008
     2	(-73.4095dB,0°)	1e+006	1e+008
     3	(-73.4095dB,0°)	1e+006	1e+008
     4	(-73.4095dB,0°)	1e+006	1e+008
     5	(-73.4095dB,0°)	1e+006	1e+008
     6	(-73.4095dB,0°)	1e+006	1e+008
     7	(-73.4095dB,0°)	1e+006	1e+008
     8	(-73.4095dB,0°)	1e+006	1e+008

Measurement: bw
  step	bw	FROM	TO
     1	542523	1.35532e+007	1.40957e+007
     2	542523	1.35532e+007	1.40957e+007
     3	542523	1.35532e+007	1.40957e+007
     4	542523	1.35532e+007	1.40957e+007
     5	542523	1.35532e+007	1.40957e+007
     6	542523	1.35532e+007	1.40957e+007
     7	542523	1.35532e+007	1.40957e+007
     8	542523	1.35532e+007	1.40957e+007


Date: Tue Feb 21 14:31:58 2023
Total elapsed time: 0.405 seconds.

tnom = 27
temp = 27
method = trap
totiter = 0
traniter = 0
tranpoints = 0
accept = 0
rejected = 0
matrix size = 4
fillins = 1
solver = Normal

