Circuit: * C:\Users\35840\Desktop\ant.asc

.step r=1000
.step r=2200
.step r=4700
.step r=5600
.step r=6800
.step r=8200
.step r=10000
.step r=1e+008


Measurement: tmp
  step	MIN(mag(i(v1)))	FROM	TO
     1	(-59.9998dB,0°)	1e+006	1e+008
     2	(-66.8479dB,0°)	1e+006	1e+008
     3	(-73.4402dB,0°)	1e+006	1e+008
     4	(-74.9614dB,0°)	1e+006	1e+008
     5	(-76.6469dB,0°)	1e+006	1e+008
     6	(-78.2718dB,0°)	1e+006	1e+008
     7	(-79.9938dB,0°)	1e+006	1e+008
     8	(-109.887dB,0°)	1e+006	1e+008

Measurement: bw
  step	bw	FROM	TO
     1	2.36844e+007	3.31572e+007	5.68416e+007
     2	1.07662e+007	3.83625e+007	4.91287e+007
     3	5.04032e+006	4.09661e+007	4.60064e+007
     4	4.23057e+006	4.13494e+007	4.55799e+007
     5	3.48474e+006	4.17058e+007	4.51905e+007
     6	2.89037e+006	4.1992e+007	4.48824e+007
     7	2.37039e+006	4.2244e+007	4.46144e+007
     8	80935.9	4.33858e+007	4.34668e+007


Date: Tue Feb 14 14:39:35 2023
Total elapsed time: 0.406 seconds.

tnom = 27
temp = 27
method = trap
totiter = 0
traniter = 0
tranpoints = 0
accept = 0
rejected = 0
matrix size = 4
fillins = 1
solver = Normal

