Circuit: * C:\git\LTSpice\NFC antenna simulations\ant.asc

.step r=1000
.step r=2200
.step r=4700
.step r=5600
.step r=6800
.step r=8200
.step r=10000
.step r=1e+008


Measurement: tmp
  step	MIN(mag(i(v1)))	FROM	TO
     1	(-59.9992dB,0°)	1e+006	1e+008
     2	(-66.8467dB,0°)	1e+006	1e+008
     3	(-73.4381dB,0°)	1e+006	1e+008
     4	(-74.9591dB,0°)	1e+006	1e+008
     5	(-76.6445dB,0°)	1e+006	1e+008
     6	(-78.2693dB,0°)	1e+006	1e+008
     7	(-79.9915dB,0°)	1e+006	1e+008
     8	(-119.404dB,0°)	1e+006	1e+008

Measurement: bw
  step	bw	FROM	TO
     1	0	4.70317e+007	0
     2	3.62697e+007	6.11932e+007	9.74628e+007
     3	1.69813e+007	6.9201e+007	8.61823e+007
     4	1.42534e+007	7.04277e+007	8.46811e+007
     5	1.17394e+007	7.15791e+007	8.33186e+007
     6	9.73644e+006	7.25112e+007	8.22476e+007
     7	7.98522e+006	7.33365e+007	8.13218e+007
     8	51691.1	7.72341e+007	7.72858e+007


Date: Tue Feb 14 15:54:16 2023
Total elapsed time: 0.266 seconds.

tnom = 27
temp = 27
method = trap
totiter = 0
traniter = 0
tranpoints = 0
accept = 0
rejected = 0
matrix size = 4
fillins = 1
solver = Normal

