Circuit: * C:\git\LTSpice\NFC antenna simulations\Draft1.asc

Direct Newton iteration for .op point succeeded.

Date: Tue Mar 28 13:34:11 2023
Total elapsed time: 0.094 seconds.

tnom = 27
temp = 27
method = modified trap
totiter = 2091
traniter = 2088
tranpoints = 1045
accept = 1045
rejected = 0
matrix size = 4
fillins = 0
solver = Normal
Matrix Compiler1:       7 opcodes  0.1/[0.1]/0.1
Matrix Compiler2:      23 opcodes  0.1/[0.1]/0.1

