Circuit: * C:\git\LTSpice\NFC antenna simulations\Draft2.asc

Warning: Pscbe2 = 0 is not positive.
Warning: Pd = 0 is less than W.
Warning: Ps = 0 is less than W.
Direct Newton iteration for .op point succeeded.

Date: Tue Apr 11 15:01:52 2023
Total elapsed time: 8.330 seconds.

tnom = 27
temp = 27
method = modified trap
totiter = 2373429
traniter = 2373420
tranpoints = 1052863
accept = 727988
rejected = 324875
matrix size = 17
fillins = 7
solver = Normal
Matrix Compiler1: 1.30 KB object code size  0.6/0.4/[0.3]
Matrix Compiler2: off  [0.3]/0.5/0.4

